************************************************************************
* auCdl Netlist:
* 
* Library Name:  PI4008K_AP
* Top Cell Name: mipi_rx_top_v2
* View Name:     schematic
* Netlisted on:  Aug 12 10:05:06 2016
************************************************************************

*.INCLUDE  /rnda2/Project/DesignKit/UMC55nm_LP_LATEST/RuleDecks/LVS/CDL_include_file.cir
*.BIPOLAR
*.RESI = 2000 
*.RESVAL
*.CAPVAL
*.DIOPERI
*.DIOAREA
*.EQUATION
*.SCALE METER
*.MEGA
*.PARAM



************************************************************************
* Library Name: PI4008K_AP
* Cell Name:    lsft_mipi
* View Name:    schematic
************************************************************************

.SUBCKT lsft_mipi gnda_in in out outb vdda_in vddd_in
*.PININFO in:I out:O outb:O gnda_in:B vdda_in:B vddd_in:B
MPM4 inb_b1 in_b vdda_in vdda_in P_25OD33_LP W=500n L=400n M=1
MPM5 in_b1 inb_b vdda_in vdda_in P_25OD33_LP W=500n L=400n M=1
MPM9 inb_b net056 inb_b1 vdda_in P_25OD33_LP W=500n L=400n M=1
MPM6 outb inb_b vdda_in vdda_in P_25OD33_LP W=1.5u L=500n M=1
MPM7 out outb vdda_in vdda_in P_25OD33_LP W=1.5u L=500n M=1
MPM8 in_b net053 in_b1 vdda_in P_25OD33_LP W=500n L=400n M=1
RR1 in net053 750.814 $SUB=vdda_in $[RNPPO_LP] $W=2u $L=2u M=1
RR0 net42 net056 750.814 $SUB=vdda_in $[RNPPO_LP] $W=2u $L=2u M=1
MNM1 in_b net053 gnda_in gnda_in N_25OD33_LP W=3u L=500n M=1
MNM2 inb_b net056 gnda_in gnda_in N_25OD33_LP W=3u L=500n M=1
MNM3 outb inb_b gnda_in gnda_in N_25OD33_LP W=500n L=500n M=1
MNM8 net056 gnda_in gnda_in gnda_in N_25OD33_LP W=4u L=500n M=1
MNM4 out outb gnda_in gnda_in N_25OD33_LP W=500n L=500n M=1
MNM7 net053 gnda_in gnda_in gnda_in N_25OD33_LP W=4u L=500n M=1
MNM5 net42 net053 gnda_in gnda_in N_12_LPRVT W=1u L=60n M=1
MPM10 net42 net053 vddd_in vddd_in P_12_LPRVT W=3u L=60n M=1
.ENDS

************************************************************************
* Library Name: PI4008K_AP
* Cell Name:    mipi_lvls
* View Name:    schematic
************************************************************************

.SUBCKT mipi_lvls mipi_clk_pd_O mipi_clk_pd_buf mipi_cterm_en_O 
+ mipi_cterm_en_buf mipi_data_pd_O<0> mipi_data_pd_O<1> mipi_data_pd_O<2> 
+ mipi_data_pd_O<3> mipi_data_pd_buf<0> mipi_data_pd_buf<1> 
+ mipi_data_pd_buf<2> mipi_data_pd_buf<3> mipi_dterm_en_O<3> 
+ mipi_dterm_en_O<2> mipi_dterm_en_O<1> mipi_dterm_en_O<0> 
+ mipi_dterm_en_buf<3> mipi_dterm_en_buf<2> mipi_dterm_en_buf<1> 
+ mipi_dterm_en_buf<0> mipi_ref_pd_O mipi_ref_pdb_buf vddd vddio vssd
*.PININFO mipi_clk_pd_O:I mipi_cterm_en_O:I mipi_data_pd_O<0>:I 
*.PININFO mipi_data_pd_O<1>:I mipi_data_pd_O<2>:I mipi_data_pd_O<3>:I 
*.PININFO mipi_dterm_en_O<3>:I mipi_dterm_en_O<2>:I mipi_dterm_en_O<1>:I 
*.PININFO mipi_dterm_en_O<0>:I mipi_ref_pd_O:I mipi_clk_pd_buf:O 
*.PININFO mipi_cterm_en_buf:O mipi_data_pd_buf<0>:O mipi_data_pd_buf<1>:O 
*.PININFO mipi_data_pd_buf<2>:O mipi_data_pd_buf<3>:O mipi_dterm_en_buf<3>:O 
*.PININFO mipi_dterm_en_buf<2>:O mipi_dterm_en_buf<1>:O mipi_dterm_en_buf<0>:O 
*.PININFO mipi_ref_pdb_buf:O vddd:B vddio:B vssd:B
XI15<3> vssd mipi_dterm_en_O<3> mipi_dterm_en_buf<3> net025<0> vddio vddd / 
+ lsft_mipi
XI15<2> vssd mipi_dterm_en_O<2> mipi_dterm_en_buf<2> net025<1> vddio vddd / 
+ lsft_mipi
XI15<1> vssd mipi_dterm_en_O<1> mipi_dterm_en_buf<1> net025<2> vddio vddd / 
+ lsft_mipi
XI15<0> vssd mipi_dterm_en_O<0> mipi_dterm_en_buf<0> net025<3> vddio vddd / 
+ lsft_mipi
XI13 vssd mipi_cterm_en_O mipi_cterm_en_buf net027 vddio vddd / lsft_mipi
XI11 vssd mipi_ref_pd_O net020 mipi_ref_pdb_buf vddio vddd / lsft_mipi
XI7 vssd mipi_data_pd_O<2> mipi_data_pd_buf<2> net018 vddio vddd / lsft_mipi
XI5 vssd mipi_data_pd_O<3> mipi_data_pd_buf<3> net016 vddio vddd / lsft_mipi
XI3 vssd mipi_data_pd_O<1> mipi_data_pd_buf<1> net16 vddio vddd / lsft_mipi
XI1 vssd mipi_data_pd_O<0> mipi_data_pd_buf<0> net18 vddio vddd / lsft_mipi
XI82 vssd mipi_clk_pd_O mipi_clk_pd_buf net17 vddio vddd / lsft_mipi
.ENDS

************************************************************************
* Library Name: PI4008K_AP
* Cell Name:    mipi_rx_inv2x
* View Name:    schematic
************************************************************************

.SUBCKT mipi_rx_inv2x in out vddd vssd
*.PININFO in:I out:O vddd:B vssd:B
MNM0 out in vssd vssd N_12_LPRVT W=300n L=60n M=1
MPM0 out in vddd vddd P_12_LPRVT W=900n L=60n M=1
.ENDS

************************************************************************
* Library Name: PI4008K_AP
* Cell Name:    mipi_ref_amp_v2
* View Name:    schematic
************************************************************************

.SUBCKT mipi_ref_amp_v2 inn inp out stdby12 stdby12b vddd vp1 vssd
*.PININFO inn:I inp:I stdby12:I stdby12b:I vp1:I out:O vddd:B vssd:B
MNM1 out net77 vssd vssd N_12_LPRVT W=1u L=500n M=1
MNM2 net77 net77 vssd vssd N_12_LPRVT W=1u L=500n M=1
MNM0 net0344 net0344 vssd vssd N_12_LPRVT W=1u L=500n M=1
MNM3 net0342 net0344 vssd vssd N_12_LPRVT W=1u L=500n M=1
MNM6 net0344 stdby12 vssd vssd N_12_LPRVT W=300n L=200n M=1
MNM4 net77 stdby12 vssd vssd N_12_LPRVT W=300n L=200n M=1
MPM2 vcm vp1 vddd vddd P_12_LPRVT W=6u L=2u M=4
MPM0 out net0342 vddd vddd P_12_LPRVT W=6u L=500n M=1
MPM1 net0344 inn vcm vcm P_12_LPRVT W=24u L=500n M=1
MPM3 net0342 net0342 vddd vddd P_12_LPRVT W=6u L=500n M=1
MPM4 net77 inp vcm vcm P_12_LPRVT W=24u L=500n M=1
MPM5 net0342 stdby12b vddd vddd P_12_LPRVT W=900n L=200n M=1
MPM6 out stdby12b vddd vddd P_12_LPRVT W=500n L=200n M=1
.ENDS

************************************************************************
* Library Name: PI4008K_AP
* Cell Name:    mipi_ref_amp_nmos
* View Name:    schematic
************************************************************************

.SUBCKT mipi_ref_amp_nmos inn inp out stdby12b vddd vn1 vssd
*.PININFO inn:I inp:I stdby12b:I vn1:I out:O vddd:B vssd:B
MNM0 mirr inp net16 vssd N_12_LPRVT W=8u L=500n M=1
MNM1 out inn net16 vssd N_12_LPRVT W=8u L=500n M=1
MNM2 net16 vn1 vssd vssd N_12_LPRVT W=4u L=2u M=1
MPM2 mirr mirr vddd vddd P_12_LPRVT W=12u L=500n M=1
MPM0 out mirr vddd vddd P_12_LPRVT W=12u L=500n M=1
MPM1 mirr stdby12b vddd vddd P_12_LPRVT W=6u L=500n M=1
MPM3 out stdby12b vddd vddd P_12_LPRVT W=6u L=500n M=1
.ENDS

************************************************************************
* Library Name: PI4008K_AP
* Cell Name:    mipi_rx_nand2
* View Name:    schematic
************************************************************************

.SUBCKT mipi_rx_nand2 a b out vddd vssd
*.PININFO a:I b:I out:O vddd:B vssd:B
MNM0 net062 b vssd vssd N_12_LPRVT W=500n L=60n M=1
MNM1 out a net062 vssd N_12_LPRVT W=500n L=60n M=1
MPM0 out a vddd vddd P_12_LPRVT W=900n L=60n M=1
MPM1 out b vddd vddd P_12_LPRVT W=900n L=60n M=1
.ENDS

************************************************************************
* Library Name: PI4008K_AP
* Cell Name:    mipi_rx_dec2b
* View Name:    schematic
************************************************************************

.SUBCKT mipi_rx_dec2b b<1> b<0> o<3> o<2> o<1> o<0> ob<3> ob<2> ob<1> ob<0> 
+ vddd vssd
*.PININFO b<1>:I b<0>:I o<3>:O o<2>:O o<1>:O o<0>:O ob<3>:O ob<2>:O ob<1>:O 
*.PININFO ob<0>:O vddd:B vssd:B
XI1 net58 o<0> vddd vssd / mipi_rx_inv2x
XI28 o<2> ob<2> vddd vssd / mipi_rx_inv2x
XI26 net0164 o<3> vddd vssd / mipi_rx_inv2x
XI9 b<0> b0b vddd vssd / mipi_rx_inv2x
XI10 b0b b0 vddd vssd / mipi_rx_inv2x
XI11 o<0> ob<0> vddd vssd / mipi_rx_inv2x
XI16 b<1> b1b vddd vssd / mipi_rx_inv2x
XI15 b1b b1 vddd vssd / mipi_rx_inv2x
XI23 net0171 o<1> vddd vssd / mipi_rx_inv2x
XI22 o<1> ob<1> vddd vssd / mipi_rx_inv2x
XI27 o<3> ob<3> vddd vssd / mipi_rx_inv2x
XI29 net0157 o<2> vddd vssd / mipi_rx_inv2x
XI0 b0b b1b net58 vddd vssd / mipi_rx_nand2
XI25 b0b b1 net0157 vddd vssd / mipi_rx_nand2
XI24 b0 b1 net0164 vddd vssd / mipi_rx_nand2
XI21 b0 b1b net0171 vddd vssd / mipi_rx_nand2
.ENDS

************************************************************************
* Library Name: PI4008K_AP
* Cell Name:    mipi_rx_lpth
* View Name:    schematic
************************************************************************

.SUBCKT mipi_rx_lpth v06 vddd vhigh vhtrim<1> vhtrim<0> vlow vltrim<1> 
+ vltrim<0> vn1 vp1 vssd stdby stdbyb
*.PININFO stdby:I stdbyb:I v06:I vhtrim<1>:I vhtrim<0>:I vltrim<1>:I 
*.PININFO vltrim<0>:I vn1:I vp1:I vhigh:O vlow:O vddd:B vssd:B
MNM11 vssd v06 vssd vssd N_12_LPRVT W=6u L=6u M=14
MNM7 vssd ampout vssd vssd N_12_LPRVT W=6u L=6u M=10
MNM8 vbot stdbyb vssd vssd N_12_LPRVT W=5u L=300n M=1
MNM1<4> vref<46> vh<3> net70 vssd N_12_LPRVT W=6u L=300n M=1
MNM1<3> vref<45> vh<2> net70 vssd N_12_LPRVT W=6u L=300n M=1
MNM1<2> vref<44> vh<1> net70 vssd N_12_LPRVT W=6u L=300n M=1
MNM1<1> vref<43> vh<0> net70 vssd N_12_LPRVT W=6u L=300n M=1
MNM13 vssd vhigh vssd vssd N_12_LPRVT W=6u L=6u M=12
MNM2<4> vref<30> vl<3> net69 vssd N_12_LPRVT W=6u L=300n M=1
MNM2<3> vref<29> vl<2> net69 vssd N_12_LPRVT W=6u L=300n M=1
MNM2<2> vref<28> vl<1> net69 vssd N_12_LPRVT W=6u L=300n M=1
MNM2<1> vref<27> vl<0> net69 vssd N_12_LPRVT W=6u L=300n M=1
MNM0 vssd vlow vssd vssd N_12_LPRVT W=6u L=6u M=12
XI2 vref<30> v06 ampout stdby stdbyb vddd vp1 vssd / mipi_ref_amp_v2
XI8 vlow net69 vlow stdby stdbyb vddd vp1 vssd / mipi_ref_amp_v2
MPM15 vssd stdby vbot vddd P_12_LPRVT W=5u L=300n M=1
MPM12<4> vref<46> vhb<3> net70 vddd P_12_LPRVT W=2u L=100n M=1
MPM12<3> vref<45> vhb<2> net70 vddd P_12_LPRVT W=2u L=100n M=1
MPM12<2> vref<44> vhb<1> net70 vddd P_12_LPRVT W=2u L=100n M=1
MPM12<1> vref<43> vhb<0> net70 vddd P_12_LPRVT W=2u L=100n M=1
MPM13<4> vref<30> vlb<3> net69 vddd P_12_LPRVT W=2u L=100n M=1
MPM13<3> vref<29> vlb<2> net69 vddd P_12_LPRVT W=2u L=100n M=1
MPM13<2> vref<28> vlb<1> net69 vddd P_12_LPRVT W=2u L=100n M=1
MPM13<1> vref<27> vlb<0> net69 vddd P_12_LPRVT W=2u L=100n M=1
XI9 vhigh net70 vhigh stdbyb vddd vn1 vssd / mipi_ref_amp_nmos
RR0<1> vref<1> vbot 1.48254K $SUB=vddd $[RNPPO_LP] $W=2u $L=4u M=1
RR0<2> vref<2> vref<1> 1.48254K $SUB=vddd $[RNPPO_LP] $W=2u $L=4u M=1
RR0<3> vref<3> vref<2> 1.48254K $SUB=vddd $[RNPPO_LP] $W=2u $L=4u M=1
RR0<4> vref<4> vref<3> 1.48254K $SUB=vddd $[RNPPO_LP] $W=2u $L=4u M=1
RR0<5> vref<5> vref<4> 1.48254K $SUB=vddd $[RNPPO_LP] $W=2u $L=4u M=1
RR0<6> vref<6> vref<5> 1.48254K $SUB=vddd $[RNPPO_LP] $W=2u $L=4u M=1
RR0<7> vref<7> vref<6> 1.48254K $SUB=vddd $[RNPPO_LP] $W=2u $L=4u M=1
RR0<8> vref<8> vref<7> 1.48254K $SUB=vddd $[RNPPO_LP] $W=2u $L=4u M=1
RR0<9> vref<9> vref<8> 1.48254K $SUB=vddd $[RNPPO_LP] $W=2u $L=4u M=1
RR0<10> vref<10> vref<9> 1.48254K $SUB=vddd $[RNPPO_LP] $W=2u $L=4u M=1
RR0<11> vref<11> vref<10> 1.48254K $SUB=vddd $[RNPPO_LP] $W=2u $L=4u M=1
RR0<12> vref<12> vref<11> 1.48254K $SUB=vddd $[RNPPO_LP] $W=2u $L=4u M=1
RR0<13> vref<13> vref<12> 1.48254K $SUB=vddd $[RNPPO_LP] $W=2u $L=4u M=1
RR0<14> vref<14> vref<13> 1.48254K $SUB=vddd $[RNPPO_LP] $W=2u $L=4u M=1
RR0<15> vref<15> vref<14> 1.48254K $SUB=vddd $[RNPPO_LP] $W=2u $L=4u M=1
RR0<16> vref<16> vref<15> 1.48254K $SUB=vddd $[RNPPO_LP] $W=2u $L=4u M=1
RR0<17> vref<17> vref<16> 1.48254K $SUB=vddd $[RNPPO_LP] $W=2u $L=4u M=1
RR0<18> vref<18> vref<17> 1.48254K $SUB=vddd $[RNPPO_LP] $W=2u $L=4u M=1
RR0<19> vref<19> vref<18> 1.48254K $SUB=vddd $[RNPPO_LP] $W=2u $L=4u M=1
RR0<20> vref<20> vref<19> 1.48254K $SUB=vddd $[RNPPO_LP] $W=2u $L=4u M=1
RR0<21> vref<21> vref<20> 1.48254K $SUB=vddd $[RNPPO_LP] $W=2u $L=4u M=1
RR0<22> vref<22> vref<21> 1.48254K $SUB=vddd $[RNPPO_LP] $W=2u $L=4u M=1
RR0<23> vref<23> vref<22> 1.48254K $SUB=vddd $[RNPPO_LP] $W=2u $L=4u M=1
RR0<24> vref<24> vref<23> 1.48254K $SUB=vddd $[RNPPO_LP] $W=2u $L=4u M=1
RR0<25> vref<25> vref<24> 1.48254K $SUB=vddd $[RNPPO_LP] $W=2u $L=4u M=1
RR0<26> vref<26> vref<25> 1.48254K $SUB=vddd $[RNPPO_LP] $W=2u $L=4u M=1
RR0<27> vref<27> vref<26> 1.48254K $SUB=vddd $[RNPPO_LP] $W=2u $L=4u M=1
RR0<28> vref<28> vref<27> 1.48254K $SUB=vddd $[RNPPO_LP] $W=2u $L=4u M=1
RR0<29> vref<29> vref<28> 1.48254K $SUB=vddd $[RNPPO_LP] $W=2u $L=4u M=1
RR0<30> vref<30> vref<29> 1.48254K $SUB=vddd $[RNPPO_LP] $W=2u $L=4u M=1
RR0<31> vref<31> vref<30> 1.48254K $SUB=vddd $[RNPPO_LP] $W=2u $L=4u M=1
RR0<32> vref<32> vref<31> 1.48254K $SUB=vddd $[RNPPO_LP] $W=2u $L=4u M=1
RR0<33> vref<33> vref<32> 1.48254K $SUB=vddd $[RNPPO_LP] $W=2u $L=4u M=1
RR0<34> vref<34> vref<33> 1.48254K $SUB=vddd $[RNPPO_LP] $W=2u $L=4u M=1
RR0<35> vref<35> vref<34> 1.48254K $SUB=vddd $[RNPPO_LP] $W=2u $L=4u M=1
RR0<36> vref<36> vref<35> 1.48254K $SUB=vddd $[RNPPO_LP] $W=2u $L=4u M=1
RR0<37> vref<37> vref<36> 1.48254K $SUB=vddd $[RNPPO_LP] $W=2u $L=4u M=1
RR0<38> vref<38> vref<37> 1.48254K $SUB=vddd $[RNPPO_LP] $W=2u $L=4u M=1
RR0<39> vref<39> vref<38> 1.48254K $SUB=vddd $[RNPPO_LP] $W=2u $L=4u M=1
RR0<40> vref<40> vref<39> 1.48254K $SUB=vddd $[RNPPO_LP] $W=2u $L=4u M=1
RR0<41> vref<41> vref<40> 1.48254K $SUB=vddd $[RNPPO_LP] $W=2u $L=4u M=1
RR0<42> vref<42> vref<41> 1.48254K $SUB=vddd $[RNPPO_LP] $W=2u $L=4u M=1
RR0<43> vref<43> vref<42> 1.48254K $SUB=vddd $[RNPPO_LP] $W=2u $L=4u M=1
RR0<44> vref<44> vref<43> 1.48254K $SUB=vddd $[RNPPO_LP] $W=2u $L=4u M=1
RR0<45> vref<45> vref<44> 1.48254K $SUB=vddd $[RNPPO_LP] $W=2u $L=4u M=1
RR0<46> vref<46> vref<45> 1.48254K $SUB=vddd $[RNPPO_LP] $W=2u $L=4u M=1
XI3 vltrim<1> vltrim<0> vl<3> vl<2> vl<1> vl<0> vlb<3> vlb<2> vlb<1> vlb<0> 
+ vddd vssd / mipi_rx_dec2b
XI28 vhtrim<1> vhtrim<0> vh<3> vh<2> vh<1> vh<0> vhb<3> vhb<2> vhb<1> vhb<0> 
+ vddd vssd / mipi_rx_dec2b
MNM6 vddd ampout vref<46> vssd N_25OD33_LPNVT W=6u L=2u M=4
.ENDS

************************************************************************
* Library Name: PI4008K_AP
* Cell Name:    TIE_HIGH_12
* View Name:    schematic
************************************************************************

.SUBCKT TIE_HIGH_12 VDDD VSSD tie_high
*.PININFO tie_high:O VDDD:B VSSD:B
MNM0 net7 net7 VSSD VSSD N_12_LPRVT W=500n L=60n M=1
MPM0 tie_high net7 VDDD VDDD P_12_LPRVT W=1u L=60n M=1
.ENDS

************************************************************************
* Library Name: PI4008K_AP
* Cell Name:    TIE_LOW_12
* View Name:    schematic
************************************************************************

.SUBCKT TIE_LOW_12 VDDD VSSD tie_low
*.PININFO tie_low:O VDDD:B VSSD:B
MNM0 tie_low net7 VSSD VSSD N_12_LPRVT W=500n L=60n M=1
MPM0 net7 net7 VDDD VDDD P_12_LPRVT W=1u L=60n M=1
.ENDS

************************************************************************
* Library Name: PI4008K_AP
* Cell Name:    delay_dac_bias_v2
* View Name:    schematic
************************************************************************

.SUBCKT delay_dac_bias_v2 i10u stdby stdbyb vddd vp1 vssd
*.PININFO i10u:I stdby:I stdbyb:I vp1:O vddd:B vssd:B
MNM18 i10u stdbyb i10u vssd N_12_LPRVT W=2u L=200n M=1
MNM20 vp1 low vssd vssd N_12_LPRVT W=2u L=2u M=2
MNM4 i10u stdby vssd vssd N_12_LPRVT W=2u L=60n M=1
MNM1 i10u i10u vssd vssd N_12_LPRVT W=2u L=2u M=1
MNM0 vp1 i10u vssd vssd N_12_LPRVT W=2u L=2u M=2
MNM19 i10u low vssd vssd N_12_LPRVT W=2u L=2u M=1
XI3 vddd vssd low / TIE_LOW_12
MPM17 vp1 stdbyb vddd vddd P_12_LPRVT W=5u L=300n M=1
MPM16 vp1 vp1 vddd vddd P_12_LPRVT W=5u L=500n M=2
MPM18 vddd vp1 vddd vddd P_12_LPRVT W=5u L=5u M=2
.ENDS

************************************************************************
* Library Name: PI4008K_AP
* Cell Name:    mipi_rx_ref_v2
* View Name:    schematic
************************************************************************

.SUBCKT mipi_rx_ref_v2 i5u i5u_1 stdby stdbyb33 v06 vddd vddio vhigh vhtrim<1> 
+ vhtrim<0> vlow vltrim<1> vltrim<0> vn1 vp1_delay vp1_mipi vp1_mipi33 vssd
*.PININFO i5u:I stdby:I stdbyb33:I v06:I vhtrim<1>:I vhtrim<0>:I vltrim<1>:I 
*.PININFO vltrim<0>:I i5u_1:O vhigh:O vlow:O vn1:O vp1_delay:O vp1_mipi:O 
*.PININFO vp1_mipi33:O vddd:B vddio:B vssd:B
MNdum1 vssd vssd vssd vssd N_25OD33_LP W=2u L=500n M=3
MNdum2 vp1_mipi vssd vssd vssd N_25OD33_LP W=2u L=500n M=1
MNM0 vp1_mipi33 i5u vssd vssd N_25OD33_LP W=2u L=2u M=6
MNM3 vp1_mipi i5u vssd vssd N_25OD33_LP W=2u L=2u M=3
MNM13 i5u stdby vssd vssd N_25OD33_LP W=2u L=500n M=1
MNM14 i5u stdbyb33 i5u vssd N_25OD33_LP W=2u L=500n M=1
MNM5 i5u i5u vssd vssd N_25OD33_LP W=2u L=2u M=1
MNM4 vssd i5u vssd vssd N_25OD33_LP W=5u L=5u M=1
MPdum vddd net055 vddd vddd P_12_LPRVT W=6u L=200n M=3
MPM33 vp1_mipi stdbyb vddd vddd P_12_LPRVT W=6u L=200n M=1
MPM30 vp1_mipi vp1_mipi vddd vddd P_12_LPRVT W=6u L=2u M=3
MPM1 vn1 vp1_mipi vddd vddd P_12_LPRVT W=6u L=2u M=2
MPM0 i5u_1 vp1_mipi vddd vddd P_12_LPRVT W=6u L=2u M=1
XI4 stdby stdbyb vddd vssd / mipi_rx_inv2x
XIlpth v06 vddd vhigh vhtrim<1> vhtrim<0> vlow vltrim<1> vltrim<0> vn1 
+ vp1_mipi vssd stdby stdbyb / mipi_rx_lpth
MNM9 vp1_mipi33 vp1_mipi33 vddio vddio P_25OD33_LP W=36u L=2u M=1
MNM12 vddd vssd vddd vddd P_25OD33_LP W=13u L=10u M=1
MPM2 vp1_mipi33 stdbyb33 vddio vddio P_25OD33_LP W=6u L=400n M=1
XI12 vddd vssd net055 / TIE_HIGH_12
XIdelay_bias vn1 stdby stdbyb vddd vp1_delay vssd / delay_dac_bias_v2
.ENDS

************************************************************************
* Library Name: PI4008K_AP
* Cell Name:    delay_dac_inv4x
* View Name:    schematic
************************************************************************

.SUBCKT delay_dac_inv4x in out vddd vssd
*.PININFO in:I out:O vddd:B vssd:B
MNM11 out in vssd vssd N_12_LPRVT W=300n L=60n M=2
MPM5 out in vddd vddd P_12_LPRVT W=900n L=60n M=2
.ENDS

************************************************************************
* Library Name: PI4008K_AP
* Cell Name:    mipi_rx_inv4x
* View Name:    schematic
************************************************************************

.SUBCKT mipi_rx_inv4x in out vddd vssd
*.PININFO in:I out:O vddd:B vssd:B
MNM0 out in vssd vssd N_12_LPRVT W=300n L=60n M=2
MPM0 out in vddd vddd P_12_LPRVT W=900n L=60n M=2
.ENDS

************************************************************************
* Library Name: PI4008K_AP
* Cell Name:    mipi_rx_inv8x
* View Name:    schematic
************************************************************************

.SUBCKT mipi_rx_inv8x in out vddd vssd
*.PININFO in:I out:O vddd:B vssd:B
MNM0 out in vssd vssd N_12_LPRVT W=300n L=60n M=4
MPM0 out in vddd vddd P_12_LPRVT W=900n L=60n M=4
.ENDS

************************************************************************
* Library Name: PI4008K_AP
* Cell Name:    mipi_rx_nor2_io
* View Name:    schematic
************************************************************************

.SUBCKT mipi_rx_nor2_io a b out vddd vssd
*.PININFO a:I b:I out:O vddd:B vssd:B
MNM0 out b vssd vssd N_25OD33_LP W=400n L=500n M=1
MNM1 out a vssd vssd N_25OD33_LP W=400n L=500n M=1
MPM0 out a net031 vddd P_25OD33_LP W=1u L=400n M=2
MPM1 net031 b vddd vddd P_25OD33_LP W=1u L=400n M=2
.ENDS

************************************************************************
* Library Name: PI4008K_AP
* Cell Name:    mipi_rx_nand2_io
* View Name:    schematic
************************************************************************

.SUBCKT mipi_rx_nand2_io a b out vddd vssd
*.PININFO a:I b:I out:O vddd:B vssd:B
MNM0 net062 b vssd vssd N_25OD33_LP W=500n L=500n M=1
MNM1 out a net062 vssd N_25OD33_LP W=500n L=500n M=1
MPM0 out a vddd vddd P_25OD33_LP W=900n L=400n M=1
MPM1 out b vddd vddd P_25OD33_LP W=900n L=400n M=1
.ENDS

************************************************************************
* Library Name: PI4008K_AP
* Cell Name:    mipi_rx_lp_amp_v2
* View Name:    schematic
************************************************************************

.SUBCKT mipi_rx_lp_amp_v2 inn inp out stdby33 vdda vp1_mipi33 vssd
*.PININFO inn:I inp:I stdby33:I vp1_mipi33:I out:O vdda:B vssd:B
MNM2 out net19 vssd vssd N_25OD33_LP W=4u L=1u M=1
MNM3 out stdby33 vssd vssd N_25OD33_LP W=500n L=500n M=1
MNM4 net19 stdby33 vssd vssd N_25OD33_LP W=500n L=500n M=1
MNM1 net19 net19 vssd vssd N_25OD33_LP W=4u L=1u M=1
MPM6 net11 vp1_mipi33 vdda vdda P_25OD33_LP W=6u L=2u M=1
MPM5 out inn net11 vdda P_25OD33_LP W=6u L=400n M=1
MPM1 net19 inp net11 vdda P_25OD33_LP W=6u L=400n M=1
.ENDS

************************************************************************
* Library Name: PI4008K_AP
* Cell Name:    mipi_rx_lp_v2
* View Name:    schematic
************************************************************************

.SUBCKT mipi_rx_lp_v2 out stdby33 vddd vddio vhigh vin vlow vp1_mipi33 vssd
*.PININFO stdby33:I vhigh:I vin:I vlow:I vp1_mipi33:I out:O vddd:B vddio:B 
*.PININFO vssd:B
XI32 net06 net013 vddd vssd / mipi_rx_inv4x
XI33 net013 out vddd vssd / mipi_rx_inv8x
XI30 net091 net094 vddd vssd / mipi_rx_inv2x
XI29 net096 net06 vddd vssd / mipi_rx_inv2x
XI27 ampout_h net094 net096 vddd vssd / mipi_rx_nor2_io
XI31 ampout_l net06 net091 vddd vssd / mipi_rx_nand2_io
XI34 vhigh vin ampout_h stdby33 vddio vp1_mipi33 vssd / mipi_rx_lp_amp_v2
XI35 vlow vin ampout_l stdby33 vddio vp1_mipi33 vssd / mipi_rx_lp_amp_v2
.ENDS

************************************************************************
* Library Name: PI4008K_AP
* Cell Name:    mipi_rx_tg
* View Name:    schematic
************************************************************************

.SUBCKT mipi_rx_tg a b sel selb vddd vssd
*.PININFO sel:I selb:I a:B b:B vddd:B vssd:B
MPM9 a selb b vddd P_12_LPRVT W=1u L=60n M=1
MNM12 a sel b vssd N_12_LPRVT W=1u L=60n M=1
.ENDS

************************************************************************
* Library Name: PI4008K_AP
* Cell Name:    mipi_rx_nor4
* View Name:    schematic
************************************************************************

.SUBCKT mipi_rx_nor4 a b c d out vddd vssd
*.PININFO a:I b:I c:I d:I out:O vddd:B vssd:B
MNM3 out c vssd vssd N_12_LPRVT W=300n L=60n M=1
MNM2 out d vssd vssd N_12_LPRVT W=300n L=60n M=1
MNM0 out b vssd vssd N_12_LPRVT W=300n L=60n M=1
MNM1 out a vssd vssd N_12_LPRVT W=300n L=60n M=1
MPM3 net018 d vddd vddd P_12_LPRVT W=1u L=60n M=1
MPM2 net020 c net018 vddd P_12_LPRVT W=1u L=60n M=1
MPM0 out a net031 vddd P_12_LPRVT W=1u L=60n M=1
MPM1 net031 b net020 vddd P_12_LPRVT W=1u L=60n M=1
.ENDS

************************************************************************
* Library Name: PI4008K_AP
* Cell Name:    mipi_rx_testMux
* View Name:    schematic
************************************************************************

.SUBCKT mipi_rx_testMux dly dly_test_en hsd hsd_test_en lpn lpn_test_en lpp 
+ lpp_test_en test_out vddd vssd
*.PININFO dly:I dly_test_en:I hsd:I hsd_test_en:I lpn:I lpn_test_en:I lpp:I 
*.PININFO lpp_test_en:I test_out:O vddd:B vssd:B
XI4 dly test_out dly_test_en dly_test_enb vddd vssd / mipi_rx_tg
XI2 hsd test_out hsd_test_en hsd_test_enb vddd vssd / mipi_rx_tg
XI0 lpn test_out lpn_test_en lpn_test_enb vddd vssd / mipi_rx_tg
XI84 lpp test_out lpp_test_en lpp_test_enb vddd vssd / mipi_rx_tg
XI5 dly_test_en dly_test_enb vddd vssd / mipi_rx_inv2x
XI3 hsd_test_en hsd_test_enb vddd vssd / mipi_rx_inv2x
XI1 lpn_test_en lpn_test_enb vddd vssd / mipi_rx_inv2x
XI81 lpp_test_en lpp_test_enb vddd vssd / mipi_rx_inv2x
XI6 lpp_test_en lpn_test_en hsd_test_en dly_test_en net13 vddd vssd / 
+ mipi_rx_nor4
MNM11 test_out net13 vssd vssd N_12_LPRVT W=1u L=60n M=1
.ENDS

************************************************************************
* Library Name: PI4008K_AP
* Cell Name:    mipi_hs_buf_v2
* View Name:    schematic
************************************************************************

.SUBCKT mipi_hs_buf_v2 inn inp out stdby12 stdby12b vddd vp1 vssd
*.PININFO inn:I inp:I stdby12:I stdby12b:I vp1:I out:O vddd:B vssd:B
MNM1 out net77 vssd vssd N_12_LPRVT W=300n L=150n M=4
MNM2 net77 net77 vssd vssd N_12_LPRVT W=300n L=150n M=1
MNM0 net0344 net0344 vssd vssd N_12_LPRVT W=300n L=150n M=1
MNM3 net0342 net0344 vssd vssd N_12_LPRVT W=300n L=150n M=4
MNM7 out stdby12 vssd vssd N_12_LPRVT W=300n L=200n M=1
MNM6 net0344 stdby12 vssd vssd N_12_LPRVT W=300n L=200n M=1
MNM4 net77 stdby12 vssd vssd N_12_LPRVT W=300n L=200n M=1
MPM2 vcm vp1 vddd vddd P_12_LPRVT W=6u L=2u M=4
MPM0 out net0342 vddd vddd P_12_LPRVT W=1.5u L=150n M=4
MPM1 net0344 inn vcm vcm P_12_LPRVT W=3u L=60n M=2
MPM3 net0342 net0342 vddd vddd P_12_LPRVT W=1.5u L=150n M=4
MPM4 net77 inp vcm vcm P_12_LPRVT W=3u L=60n M=2
MPMdummy<1> vcm vcm vcm vcm P_12_LPRVT W=3u L=60n M=1
MPMdummy<2> vcm vcm vcm vcm P_12_LPRVT W=3u L=60n M=1
MPM5 net0342 stdby12b vddd vddd P_12_LPRVT W=200n L=150n M=1
.ENDS

************************************************************************
* Library Name: PI4008K_AP
* Cell Name:    mipi_rx_hs_v2
* View Name:    schematic
************************************************************************

.SUBCKT mipi_rx_hs_v2 inn inp out stdby stdbyb vdda vddd vp1 vp1_33 vssd
*.PININFO inn:I inp:I stdby:I stdbyb:I vp1:I vp1_33:I out:O vdda:B vddd:B 
*.PININFO vssd:B
MPM7 out1 out1b vddd vddd P_12_LPRVT W=1.8u L=200n M=1
MPM5 out1b out1b vddd vddd P_12_LPRVT W=2u L=200n M=1
MPM2 out1 out1 vddd vddd P_12_LPRVT W=2u L=200n M=1
MPM4 out1b out1 vddd vddd P_12_LPRVT W=1.8u L=200n M=1
MNM2 out1 n1b vssd vssd N_12_LPRVT W=4u L=200n M=2
MNM1 n1b n1b vssd vssd N_12_LPRVT W=4u L=200n M=1
MNM4 n1 stdby vssd vssd N_12_LPRVT W=500n L=200n M=1
MNM5 n1b stdby vssd vssd N_12_LPRVT W=500n L=200n M=1
MNM0 n1 n1 vssd vssd N_12_LPRVT W=4u L=200n M=1
MNM3 out1b n1 vssd vssd N_12_LPRVT W=4u L=200n M=2
XI26 out1b out1 out stdby stdbyb vddd vp1 vssd / mipi_hs_buf_v2
MPM14 n1b inp vcm vdda P_25OD33_LP W=6u L=400n M=2
MNM9 vcm vp1_33 vdda vdda P_25OD33_LP W=36u L=2u M=1
MPM13 n1 inn vcm vdda P_25OD33_LP W=6u L=400n M=2
MPM10 vdda vdda vcm vdda P_25OD33_LP W=6u L=400n M=1
MPM11 vdda vdda vcm vdda P_25OD33_LP W=6u L=400n M=1
MPM0 vdda vp1_33 vdda vdda P_25OD33_LP W=6u L=3u M=2
.ENDS

************************************************************************
* Library Name: PI4008K_AP
* Cell Name:    mipi_rx_term_v2
* View Name:    schematic
************************************************************************

.SUBCKT mipi_rx_term_v2 dn dp en33 vdda vssd
*.PININFO dn:I dp:I en33:I vdda:B vssd:B
RR18 dn net038 120.028 $SUB=vdda $[RNPPO_LP] $W=20u $L=3.26u M=1
RR19 dn net038 120.028 $SUB=vdda $[RNPPO_LP] $W=20u $L=3.26u M=1
RR13 dp net039 120.028 $SUB=vdda $[RNPPO_LP] $W=20u $L=3.26u M=1
RR17 dp net039 120.028 $SUB=vdda $[RNPPO_LP] $W=20u $L=3.26u M=1
RR16 dp net039 120.028 $SUB=vdda $[RNPPO_LP] $W=20u $L=3.26u M=1
RR20 dn net038 120.028 $SUB=vdda $[RNPPO_LP] $W=20u $L=3.26u M=1
CC0 vssd vcom $[PCAP_25_LP] m=1 wf=18u lf=10.5u nf=4
MPM0 net056 net026 vdda vdda P_25OD33_LP W=3u L=400n M=1
MNM6 net026 en33 vdda vdda P_25OD33_LP W=500n L=400n M=1
MPM2 en_buf net063 vdda vdda P_25OD33_LP W=18u L=400n M=1
MPM1 net063 net056 vdda vdda P_25OD33_LP W=6u L=400n M=1
MNM4 net038 en_buf vcom vssd N_25OD33_LP W=300u L=500n M=1
MNM1 net039 en_buf vcom vssd N_25OD33_LP W=300u L=500n M=1
MNM8 net063 net056 vssd vssd N_25OD33_LP W=4u L=500n M=1
MNM9 en_buf net063 vssd vssd N_25OD33_LP W=12u L=500n M=1
MNM7 net056 net026 vssd vssd N_25OD33_LP W=2u L=500n M=1
MNM5 net026 en33 vssd vssd N_25OD33_LP W=500n L=500n M=1
.ENDS

************************************************************************
* Library Name: PI4008K_AP
* Cell Name:    std
* View Name:    schematic
************************************************************************

.SUBCKT std in outn outp vddd vssd
*.PININFO in:I outn:O outp:O vddd:B vssd:B
XI38 vddd vssd net15 / TIE_HIGH_12
MNM1 in net15 outp vssd N_12_LPRVT W=1u L=150.0n M=1
MNM0 outn in vssd vssd N_12_LPRVT W=1u L=150.0n M=1
MPM0 outn in vddd vddd P_12_LPRVT W=3u L=150.0n M=1
MPM1 in net18 outp vddd P_12_LPRVT W=3u L=150.0n M=1
XI39 vddd vssd net18 / TIE_LOW_12
.ENDS

************************************************************************
* Library Name: PI4008K_AP
* Cell Name:    dts
* View Name:    schematic
************************************************************************

.SUBCKT dts inn inp out vddd vssd stdby stdbyb vn1
*.PININFO inn:I inp:I stdby:I stdbyb:I vn1:I out:O vddd:B vssd:B
MNM7 out net059 vssd vssd N_12_LPRVT W=2u L=60n M=4
MNM6 net059 net054 vssd vssd N_12_LPRVT W=2u L=60n M=2
MNM4 net054 net049 vssd vssd N_12_LPRVT W=2u L=60n M=1
MNM0 net0120 inn net20 vssd N_12_LPRVT W=5u L=60n M=1
MNM3 net049 ampout vssd vssd N_12_LPRVT W=500n L=90n M=1
MNM1 net0194 inp net20 vssd N_12_LPRVT W=5u L=60n M=1
MNM2 net20 vn1 vssd vssd N_12_LPRVT W=10u L=2u M=1
MNM9 ampout net058 vssd vssd N_12_LPRVT W=2u L=500n M=4
MNM8 net058 net058 vssd vssd N_12_LPRVT W=2u L=500n M=1
MNM13 net058 stdby vssd vssd N_12_LPRVT W=2u L=200n M=1
MNM12 ampout stdby vssd vssd N_12_LPRVT W=1u L=200n M=1
MPM6 out net059 vddd vddd P_12_LPRVT W=6u L=60n M=4
MPM5 net059 net054 vddd vddd P_12_LPRVT W=6u L=60n M=2
MPM0 net054 net049 vddd vddd P_12_LPRVT W=6u L=60n M=1
MPM1 net0120 net0120 vddd vddd P_12_LPRVT W=3u L=500n M=1
MPM2 net0194 net0194 vddd vddd P_12_LPRVT W=3u L=500n M=1
MPM4 net049 ampout vddd vddd P_12_LPRVT W=4u L=60n M=1
MPM9 net058 net0120 vddd vddd P_12_LPRVT W=3u L=500n M=1
MPM8 ampout net0194 vddd vddd P_12_LPRVT W=3u L=500n M=4
MPM14 net0194 stdbyb vddd vddd P_12_LPRVT W=3u L=300n M=1
MPM15 net0120 stdbyb vddd vddd P_12_LPRVT W=3u L=300n M=1
.ENDS

************************************************************************
* Library Name: PI4008K_AP
* Cell Name:    dll_delay_align
* View Name:    schematic
************************************************************************

.SUBCKT dll_delay_align in out stdby stdbyb vddd vn1 vssd
*.PININFO in:I stdby:I stdbyb:I vn1:I out:O vddd:B vssd:B
XIstd in inn inp vddd vssd / std
MNM1 vssd vn1 vssd vssd N_12_LPNVT W=5u L=5u M=2
XIin_buffer inn inp out vddd vssd stdby stdbyb vn1 / dts
.ENDS

************************************************************************
* Library Name: PI4008K_AP
* Cell Name:    delay_inv
* View Name:    schematic
************************************************************************

.SUBCKT delay_inv gndd_in in out vddd_in
*.PININFO in:I out:O gndd_in:B vddd_in:B
MNM11 out in gndd_in gndd_in N_12_LPRVT W=300n L=60n M=1
MPM5 out in vddd_in vddd_in P_12_LPRVT W=900n L=60n M=1
.ENDS

************************************************************************
* Library Name: PI4008K_AP
* Cell Name:    delay_inv_x4
* View Name:    schematic