************************************************************************
* auCdl Netlist:
* 
* Library Name:  PV2109K
* Top Cell Name: ANALOG_CORE_PV2109K2
* View Name:     schematic
* Netlisted on:  Aug 25 18:59:42 2016
************************************************************************

*.INCLUDE  /rnda2/Project/DesignKit/TowerJazz_65nm_160711/tps65isc/pcell/ic61/tps65isc_2.4.0/pcellLib65n_maico_nm65c//cdlNetlist.header
*.EQUATION
*.SCALE METER
*.MEGA
.PARAM



************************************************************************
* Library Name: PV2109K
* Cell Name:    sh_tie_hl12_pv2109k2
* View Name:    schematic
************************************************************************

.SUBCKT sh_tie_hl12_pv2109k2 GNDD HIGH LOW VDDD psub
*.PININFO GNDD:B HIGH:B LOW:B VDDD:B psub:B
MM1 LOW HIGH GNDD psub N3 W=200n L=100n m=1
MM0 LOW LOW GNDD psub N3 W=200n L=100n m=1
MM2 HIGH LOW VDDD VDDD P3 W=200n L=100n m=1
.ENDS

************************************************************************
* Library Name: PV2109K
* Cell Name:    sh_cp_inv_HX1
* View Name:    schematic
************************************************************************

.SUBCKT sh_cp_inv_HX1 GNDR IN OUT VDDR
*.PININFO IN:I OUT:O GNDR:B VDDR:B
MM0 OUT IN GNDR GNDR NL W=400n L=380n m=1
MM1 OUT IN VDDR VDDR PL W=1.2u L=380n m=1
.ENDS

************************************************************************
* Library Name: PV2109K
* Cell Name:    sh_cp_inv_HX3
* View Name:    schematic
************************************************************************

.SUBCKT sh_cp_inv_HX3 GNDR IN OUT VDDR
*.PININFO IN:I OUT:O GNDR:B VDDR:B
MM0 OUT IN GNDR GNDR NL W=1.2u L=380n m=1
MM1 OUT IN VDDR VDDR PL W=3u L=380n m=1
.ENDS

************************************************************************
* Library Name: PV2109K
* Cell Name:    sh_cp_nand5_HX1
* View Name:    schematic
************************************************************************

.SUBCKT sh_cp_nand5_HX1 GNDR IN<0> IN<1> IN<2> IN<3> IN<4> OUT VDDR
*.PININFO IN<0>:I IN<1>:I IN<2>:I IN<3>:I IN<4>:I OUT:O GNDR:B VDDR:B
MM6 net026 IN<4> GNDR GNDR NL W=800n L=380n m=1
MM5 net025 IN<2> net027 GNDR NL W=800n L=380n m=1
MM4 net027 IN<3> net026 GNDR NL W=800n L=380n m=1
MM3 OUT IN<0> net21 GNDR NL W=800n L=380n m=1
MM0 net21 IN<1> net025 GNDR NL W=800n L=380n m=1
MM9 OUT IN<4> VDDR VDDR PL W=400n L=380n m=1
MM8 OUT IN<3> VDDR VDDR PL W=400n L=380n m=1
MM7 OUT IN<2> VDDR VDDR PL W=400n L=380n m=1
MM2 OUT IN<1> VDDR VDDR PL W=400n L=380n m=1
MM1 OUT IN<0> VDDR VDDR PL W=400n L=380n m=1
.ENDS

************************************************************************
* Library Name: PV2109K
* Cell Name:    sh_cp_rdac_dec5b
* View Name:    schematic
************************************************************************

.SUBCKT sh_cp_rdac_dec5b DEC<31> DEC<30> DEC<29> DEC<28> DEC<27> DEC<26> 
+ DEC<25> DEC<24> DEC<23> DEC<22> DEC<21> DEC<20> DEC<19> DEC<18> DEC<17> 
+ DEC<16> DEC<15> DEC<14> DEC<13> DEC<12> DEC<11> DEC<10> DEC<9> DEC<8> DEC<7> 
+ DEC<6> DEC<5> DEC<4> DEC<3> DEC<2> DEC<1> DEC<0> G<4> G<3> G<2> G<1> G<0> 
+ GB<4> GB<3> GB<2> GB<1> GB<0> GNDR VDDR
*.PININFO G<4>:I G<3>:I G<2>:I G<1>:I G<0>:I GB<4>:I GB<3>:I GB<2>:I GB<1>:I 
*.PININFO GB<0>:I DEC<31>:O DEC<30>:O DEC<29>:O DEC<28>:O DEC<27>:O DEC<26>:O 
*.PININFO DEC<25>:O DEC<24>:O DEC<23>:O DEC<22>:O DEC<21>:O DEC<20>:O 
*.PININFO DEC<19>:O DEC<18>:O DEC<17>:O DEC<16>:O DEC<15>:O DEC<14>:O 
*.PININFO DEC<13>:O DEC<12>:O DEC<11>:O DEC<10>:O DEC<9>:O DEC<8>:O DEC<7>:O 
*.PININFO DEC<6>:O DEC<5>:O DEC<4>:O DEC<3>:O DEC<2>:O DEC<1>:O DEC<0>:O 
*.PININFO GNDR:B VDDR:B
XDEC_INV<0> GNDR net5<0> DEC<0> VDDR / sh_cp_inv_HX1
XDEC_INV<1> GNDR net5<1> DEC<1> VDDR / sh_cp_inv_HX1
XDEC_INV<2> GNDR net5<2> DEC<2> VDDR / sh_cp_inv_HX1
XDEC_INV<3> GNDR net5<3> DEC<3> VDDR / sh_cp_inv_HX1
XDEC_INV<4> GNDR net5<4> DEC<4> VDDR / sh_cp_inv_HX1
XDEC_INV<5> GNDR net5<5> DEC<5> VDDR / sh_cp_inv_HX1
XDEC_INV<6> GNDR net5<6> DEC<6> VDDR / sh_cp_inv_HX1
XDEC_INV<7> GNDR net5<7> DEC<7> VDDR / sh_cp_inv_HX1
XDEC_INV<8> GNDR net5<8> DEC<8> VDDR / sh_cp_inv_HX1
XDEC_INV<9> GNDR net5<9> DEC<9> VDDR / sh_cp_inv_HX1
XDEC_INV<10> GNDR net5<10> DEC<10> VDDR / sh_cp_inv_HX1
XDEC_INV<11> GNDR net5<11> DEC<11> VDDR / sh_cp_inv_HX1
XDEC_INV<12> GNDR net5<12> DEC<12> VDDR / sh_cp_inv_HX1
XDEC_INV<13> GNDR net5<13> DEC<13> VDDR / sh_cp_inv_HX1
XDEC_INV<14> GNDR net5<14> DEC<14> VDDR / sh_cp_inv_HX1
XDEC_INV<15> GNDR net5<15> DEC<15> VDDR / sh_cp_inv_HX1
XDEC_INV<16> GNDR net5<16> DEC<16> VDDR / sh_cp_inv_HX1
XDEC_INV<17> GNDR net5<17> DEC<17> VDDR / sh_cp_inv_HX1
XDEC_INV<18> GNDR net5<18> DEC<18> VDDR / sh_cp_inv_HX1
XDEC_INV<19> GNDR net5<19> DEC<19> VDDR / sh_cp_inv_HX1
XDEC_INV<20> GNDR net5<20> DEC<20> VDDR / sh_cp_inv_HX1
XDEC_INV<21> GNDR net5<21> DEC<21> VDDR / sh_cp_inv_HX1
XDEC_INV<22> GNDR net5<22> DEC<22> VDDR / sh_cp_inv_HX1
XDEC_INV<23> GNDR net5<23> DEC<23> VDDR / sh_cp_inv_HX1
XDEC_INV<24> GNDR net5<24> DEC<24> VDDR / sh_cp_inv_HX1
XDEC_INV<25> GNDR net5<25> DEC<25> VDDR / sh_cp_inv_HX1
XDEC_INV<26> GNDR net5<26> DEC<26> VDDR / sh_cp_inv_HX1
XDEC_INV<27> GNDR net5<27> DEC<27> VDDR / sh_cp_inv_HX1
XDEC_INV<28> GNDR net5<28> DEC<28> VDDR / sh_cp_inv_HX1
XDEC_INV<29> GNDR net5<29> DEC<29> VDDR / sh_cp_inv_HX1
XDEC_INV<30> GNDR net5<30> DEC<30> VDDR / sh_cp_inv_HX1
XDEC_INV<31> GNDR net5<31> DEC<31> VDDR / sh_cp_inv_HX1
XINBUF<4> GNDR GB<4> C<4> VDDR / sh_cp_inv_HX3
XINBUF<3> GNDR GB<3> C<3> VDDR / sh_cp_inv_HX3
XINBUF<2> GNDR GB<2> C<2> VDDR / sh_cp_inv_HX3
XINBUF<1> GNDR GB<1> C<1> VDDR / sh_cp_inv_HX3
XINBUF<0> GNDR GB<0> C<0> VDDR / sh_cp_inv_HX3
XINBBUF<4> GNDR G<4> CB<4> VDDR / sh_cp_inv_HX3
XINBBUF<3> GNDR G<3> CB<3> VDDR / sh_cp_inv_HX3
XINBBUF<2> GNDR G<2> CB<2> VDDR / sh_cp_inv_HX3
XINBBUF<1> GNDR G<1> CB<1> VDDR / sh_cp_inv_HX3
XINBBUF<0> GNDR G<0> CB<0> VDDR / sh_cp_inv_HX3
XDEC_NAND<0> GNDR CB<4> CB<0> CB<1> CB<2> CB<3> net5<0> VDDR / sh_cp_nand5_HX1
XDEC_NAND<1> GNDR CB<4> C<0> CB<1> CB<2> CB<3> net5<1> VDDR / sh_cp_nand5_HX1
XDEC_NAND<2> GNDR CB<4> C<0> C<1> CB<2> CB<3> net5<2> VDDR / sh_cp_nand5_HX1
XDEC_NAND<3> GNDR CB<4> CB<0> C<1> CB<2> CB<3> net5<3> VDDR / sh_cp_nand5_HX1
XDEC_NAND<4> GNDR CB<4> CB<0> C<1> C<2> CB<3> net5<4> VDDR / sh_cp_nand5_HX1
XDEC_NAND<5> GNDR CB<4> C<0> C<1> C<2> CB<3> net5<5> VDDR / sh_cp_nand5_HX1
XDEC_NAND<6> GNDR CB<4> C<0> CB<1> C<2> CB<3> net5<6> VDDR / sh_cp_nand5_HX1
XDEC_NAND<7> GNDR CB<4> CB<0> CB<1> C<2> CB<3> net5<7> VDDR / sh_cp_nand5_HX1
XDEC_NAND<8> GNDR CB<4> CB<0> CB<1> C<2> C<3> net5<8> VDDR / sh_cp_nand5_HX1
XDEC_NAND<9> GNDR CB<4> C<0> CB<1> C<2> C<3> net5<9> VDDR / sh_cp_nand5_HX1
XDEC_NAND<10> GNDR CB<4> C<0> C<1> C<2> C<3> net5<10> VDDR / sh_cp_nand5_HX1
XDEC_NAND<11> GNDR CB<4> CB<0> C<1> C<2> C<3> net5<11> VDDR / sh_cp_nand5_HX1
XDEC_NAND<12> GNDR CB<4> CB<0> C<1> CB<2> C<3> net5<12> VDDR / sh_cp_nand5_HX1
XDEC_NAND<13> GNDR CB<4> C<0> C<1> CB<2> C<3> net5<13> VDDR / sh_cp_nand5_HX1
XDEC_NAND<14> GNDR CB<4> C<0> CB<1> CB<2> C<3> net5<14> VDDR / sh_cp_nand5_HX1
XDEC_NAND<15> GNDR CB<4> CB<0> CB<1> CB<2> C<3> net5<15> VDDR / sh_cp_nand5_HX1
XDEC_NAND<16> GNDR C<4> CB<0> CB<1> CB<2> C<3> net5<16> VDDR / sh_cp_nand5_HX1
XDEC_NAND<17> GNDR C<4> C<0> CB<1> CB<2> C<3> net5<17> VDDR / sh_cp_nand5_HX1
XDEC_NAND<18> GNDR C<4> C<0> C<1> CB<2> C<3> net5<18> VDDR / sh_cp_nand5_HX1
XDEC_NAND<19> GNDR C<4> CB<0> C<1> CB<2> C<3> net5<19> VDDR / sh_cp_nand5_HX1
XDEC_NAND<20> GNDR C<4> CB<0> C<1> C<2> C<3> net5<20> VDDR / sh_cp_nand5_HX1
XDEC_NAND<21> GNDR C<4> C<0> C<1> C<2> C<3> net5<21> VDDR / sh_cp_nand5_HX1
XDEC_NAND<22> GNDR C<4> C<0> CB<1> C<2> C<3> net5<22> VDDR / sh_cp_nand5_HX1
XDEC_NAND<23> GNDR C<4> CB<0> CB<1> C<2> C<3> net5<23> VDDR / sh_cp_nand5_HX1
XDEC_NAND<24> GNDR C<4> CB<0> CB<1> C<2> CB<3> net5<24> VDDR / sh_cp_nand5_HX1
XDEC_NAND<25> GNDR C<4> C<0> CB<1> C<2> CB<3> net5<25> VDDR / sh_cp_nand5_HX1
XDEC_NAND<26> GNDR C<4> C<0> C<1> C<2> CB<3> net5<26> VDDR / sh_cp_nand5_HX1
XDEC_NAND<27> GNDR C<4> CB<0> C<1> C<2> CB<3> net5<27> VDDR / sh_cp_nand5_HX1
XDEC_NAND<28> GNDR C<4> CB<0> C<1> CB<2> CB<3> net5<28> VDDR / sh_cp_nand5_HX1
XDEC_NAND<29> GNDR C<4> C<0> C<1> CB<2> CB<3> net5<29> VDDR / sh_cp_nand5_HX1
XDEC_NAND<30> GNDR C<4> C<0> CB<1> CB<2> CB<3> net5<30> VDDR / sh_cp_nand5_HX1
XDEC_NAND<31> GNDR C<4> CB<0> CB<1> CB<2> CB<3> net5<31> VDDR / sh_cp_nand5_HX1
.ENDS

************************************************************************
* Library Name: PV2109K
* Cell Name:    sh_cp_rdac
* View Name:    schematic
************************************************************************

.SUBCKT sh_cp_rdac DACG<4> DACG<3> DACG<2> DACG<1> DACG<0> DACGB<4> DACGB<3> 
+ DACGB<2> DACGB<1> DACGB<0> GNDR VDDR dac_out iin
*.PININFO DACG<4>:I DACG<3>:I DACG<2>:I DACG<1>:I DACG<0>:I DACGB<4>:I 
*.PININFO DACGB<3>:I DACGB<2>:I DACGB<1>:I DACGB<0>:I GNDR:B VDDR:B dac_out:B 
*.PININFO iin:B
RRDUMM<0> GNDR GNDR 2.542K $[RN] $W=1.6u $L=5.15u
RRDUMM<1> GNDR GNDR 2.542K $[RN] $W=1.6u $L=5.15u
RRDUMM<2> GNDR GNDR 2.542K $[RN] $W=1.6u $L=5.15u
RRDUMM<3> GNDR GNDR 2.542K $[RN] $W=1.6u $L=5.15u
RRDUMM<4> GNDR GNDR 2.542K $[RN] $W=1.6u $L=5.15u
RRS<30> iin n<30> 2.542K $[RN] $W=1.6u $L=5.15u
RRS<29> n<30> n<29> 2.542K $[RN] $W=1.6u $L=5.15u
RRS<28> n<29> n<28> 2.542K $[RN] $W=1.6u $L=5.15u
RRS<27> n<28> n<27> 2.542K $[RN] $W=1.6u $L=5.15u
RRS<26> n<27> n<26> 2.542K $[RN] $W=1.6u $L=5.15u
RRS<25> n<26> n<25> 2.542K $[RN] $W=1.6u $L=5.15u
RRS<24> n<25> n<24> 2.542K $[RN] $W=1.6u $L=5.15u
RRS<23> n<24> n<23> 2.542K $[RN] $W=1.6u $L=5.15u
RRS<22> n<23> n<22> 2.542K $[RN] $W=1.6u $L=5.15u
RRS<21> n<22> n<21> 2.542K $[RN] $W=1.6u $L=5.15u
RRS<20> n<21> n<20> 2.542K $[RN] $W=1.6u $L=5.15u
RRS<19> n<20> n<19> 2.542K $[RN] $W=1.6u $L=5.15u
RRS<18> n<19> n<18> 2.542K $[RN] $W=1.6u $L=5.15u
RRS<17> n<18> n<17> 2.542K $[RN] $W=1.6u $L=5.15u
RRS<16> n<17> n<16> 2.542K $[RN] $W=1.6u $L=5.15u
RRS<15> n<16> n<15> 2.542K $[RN] $W=1.6u $L=5.15u
RRS<14> n<15> n<14> 2.542K $[RN] $W=1.6u $L=5.15u
RRS<13> n<14> n<13> 2.542K $[RN] $W=1.6u $L=5.15u
RRS<12> n<13> n<12> 2.542K $[RN] $W=1.6u $L=5.15u
RRS<11> n<12> n<11> 2.542K $[RN] $W=1.6u $L=5.15u
RRS<10> n<11> n<10> 2.542K $[RN] $W=1.6u $L=5.15u
RRS<9> n<10> n<9> 2.542K $[RN] $W=1.6u $L=5.15u
RRS<8> n<9> n<8> 2.542K $[RN] $W=1.6u $L=5.15u
RRS<7> n<8> n<7> 2.542K $[RN] $W=1.6u $L=5.15u
RRS<6> n<7> n<6> 2.542K $[RN] $W=1.6u $L=5.15u
RRS<5> n<6> n<5> 2.542K $[RN] $W=1.6u $L=5.15u
RRS<4> n<5> n<4> 2.542K $[RN] $W=1.6u $L=5.15u
RRS<3> n<4> n<3> 2.542K $[RN] $W=1.6u $L=5.15u
RRS<2> n<3> n<2> 2.542K $[RN] $W=1.6u $L=5.15u
RRS<1> n<2> n<1> 2.542K $[RN] $W=1.6u $L=5.15u
RRS<0> n<1> GNDR 2.542K $[RN] $W=1.6u $L=5.15u
MNSW<31> iin DEC<31> dac_out GNDR NL W=800n L=380n m=1
MNSW<30> n<30> DEC<30> dac_out GNDR NL W=800n L=380n m=1
MNSW<29> n<29> DEC<29> dac_out GNDR NL W=800n L=380n m=1
MNSW<28> n<28> DEC<28> dac_out GNDR NL W=800n L=380n m=1
MNSW<27> n<27> DEC<27> dac_out GNDR NL W=800n L=380n m=1
MNSW<26> n<26> DEC<26> dac_out GNDR NL W=800n L=380n m=1
MNSW<25> n<25> DEC<25> dac_out GNDR NL W=800n L=380n m=1
MNSW<24> n<24> DEC<24> dac_out GNDR NL W=800n L=380n m=1
MNSW<23> n<23> DEC<23> dac_out GNDR NL W=800n L=380n m=1
MNSW<22> n<22> DEC<22> dac_out GNDR NL W=800n L=380n m=1
MNSW<21> n<21> DEC<21> dac_out GNDR NL W=800n L=380n m=1
MNSW<20> n<20> DEC<20> dac_out GNDR NL W=800n L=380n m=1
MNSW<19> n<19> DEC<19> dac_out GNDR NL W=800n L=380n m=1
MNSW<18> n<18> DEC<18> dac_out GNDR NL W=800n L=380n m=1
MNSW<17> n<17> DEC<17> dac_out GNDR NL W=800n L=380n m=1
MNSW<16> n<16> DEC<16> dac_out GNDR NL W=800n L=380n m=1
MNSW<15> n<15> DEC<15> dac_out GNDR NL W=800n L=380n m=1
MNSW<14> n<14> DEC<14> dac_out GNDR NL W=800n L=380n m=1
MNSW<13> n<13> DEC<13> dac_out GNDR NL W=800n L=380n m=1
MNSW<12> n<12> DEC<12> dac_out GNDR NL W=800n L=380n m=1
MNSW<11> n<11> DEC<11> dac_out GNDR NL W=800n L=380n m=1
MNSW<10> n<10> DEC<10> dac_out GNDR NL W=800n L=380n m=1
MNSW<9> n<9> DEC<9> dac_out GNDR NL W=800n L=380n m=1
MNSW<8> n<8> DEC<8> dac_out GNDR NL W=800n L=380n m=1
MNSW<7> n<7> DEC<7> dac_out GNDR NL W=800n L=380n m=1
MNSW<6> n<6> DEC<6> dac_out GNDR NL W=800n L=380n m=1
MNSW<5> n<5> DEC<5> dac_out GNDR NL W=800n L=380n m=1
MNSW<4> n<4> DEC<4> dac_out GNDR NL W=800n L=380n m=1
MNSW<3> n<3> DEC<3> dac_out GNDR NL W=800n L=380n m=1
MNSW<2> n<2> DEC<2> dac_out GNDR NL W=800n L=380n m=1
MNSW<1> n<1> DEC<1> dac_out GNDR NL W=800n L=380n m=1
MNSW<0> GNDR DEC<0> dac_out GNDR NL W=800n L=380n m=1
XI0 DEC<31> DEC<30> DEC<29> DEC<28> DEC<27> DEC<26> DEC<25> DEC<24> DEC<23> 
+ DEC<22> DEC<21> DEC<20> DEC<19> DEC<18> DEC<17> DEC<16> DEC<15> DEC<14> 
+ DEC<13> DEC<12> DEC<11> DEC<10> DEC<9> DEC<8> DEC<7> DEC<6> DEC<5> DEC<4> 
+ DEC<3> DEC<2> DEC<1> DEC<0> DACG<4> DACG<3> DACG<2> DACG<1> DACG<0> DACGB<4> 
+ DACGB<3> DACGB<2> DACGB<1> DACGB<0> GNDR VDDR / sh_cp_rdac_dec5b
.ENDS

************************************************************************
* Library Name: PV2109K
* Cell Name:    sh_cp_plvshft
* View Name:    schematic
************************************************************************

.SUBCKT sh_cp_plvshft D DB PCP Q QB VSS
*.PININFO D:I DB:I Q:O QB:O PCP:B VSS:B
MM5 QB D net28 PCP PLH W=500n L=500n m=1
MM6 Q DB net27 PCP PLH W=500n L=500n m=1
MM8 net28 Q PCP PCP PLH W=500n L=500n m=1
MM7 net27 QB PCP PCP PLH W=500n L=500n m=1
MM1 Q DB VSS VSS NLH W=500n L=500n m=1
MM0 QB D VSS VSS NLH W=500n L=500n m=1
.ENDS

************************************************************************
* Library Name: PV2109K
* Cell Name:    sh_cp_pOTA
* View Name:    schematic
************************************************************************

.SUBCKT sh_cp_pOTA GNDR VDDR inn inp out vbnc vbp vbpc
*.PININFO GNDR:B VDDR:B inn:B inp:B out:B vbnc:B vbp:B vbpc:B
MMNout net35 net38 GNDR GNDR NL W=64u L=1.5u m=1
MMNoutc out vbnc net35 GNDR NL W=96u L=1.5u m=1
MMNinpl net39 net38 GNDR GNDR NL W=8u L=1.5u m=1
MMNinplc net38 vbnc net39 GNDR NL W=12u L=1.5u m=1
MMNnmirc mirr vbnc net43 GNDR NL W=12u L=1.5u m=1
MMNnmir net43 net42 GNDR GNDR NL W=8u L=1.5u m=1
MMNinnl net40 net42 GNDR GNDR NL W=8u L=1.5u m=1
MMNinnlc net42 vbnc net40 GNDR NL W=12u L=1.5u m=1
MM18 net6 net6 net6 VDDR PL W=12u L=400n m=1
MM19 net6 net6 net6 VDDR PL W=12u L=400n m=1
MMPoutc out vbpc net33 VDDR PL W=96u L=1.5u m=1
MMPout net33 mirr VDDR VDDR PL W=96u L=1.5u m=1
MMPnmir net45 mirr VDDR VDDR PL W=12u L=1.5u m=1
MMPnmirc mirr vbpc net45 VDDR PL W=12u L=1.5u m=1
MMPbias net31 vbp VDDR VDDR PL W=24u L=1.5u m=1
MMPbiasc net6 vbpc net31 VDDR PL W=24u L=1.5u m=1
MMPinp net38 inp net6 VDDR PL W=12u L=400n m=1
MMPinn net42 inn net6 VDDR PL W=12u L=400n m=1
CC5 VDDR GNDR 250.408f $[CI2] $SUB=GNDR M=4
CC0 GNDR VDDR 250.408f $[CI2] $SUB=GNDR M=8
CC2 vbp VDDR 250.408f $[CI2] $SUB=GNDR M=2
CC3 vbpc VDDR 250.408f $[CI2] $SUB=GNDR M=2
CC4 vbnc GNDR 250.408f $[CI2] $SUB=GNDR M=2
.ENDS

************************************************************************
* Library Name: PV2109K
* Cell Name:    sh_cp_pamp
* View Name:    schematic
************************************************************************

.SUBCKT sh_cp_pamp GNDR STDBY STDBYB VDDR inn inp out vbnc vbp vbpc
*.PININFO STDBY:I STDBYB:I GNDR:B VDDR:B inn:B inp:B out:B vbnc:B vbp:B vbpc:B
MPBYP vbpc_amp STDBY vbpc VDDR PL W=400n L=380n m=1
MPSTDBY vbpc_amp STDBYB VDDR VDDR PL W=400n L=380n m=1
MNBYP vbpc_amp STDBYB vbpc GNDR NL W=400n L=380n m=1
XI6 GNDR VDDR inn inp out vbnc vbp vbpc_amp / sh_cp_pOTA
.ENDS

************************************************************************
* Library Name: PV2109K
* Cell Name:    sh_cp_pcp
* View Name:    schematic
************************************************************************

.SUBCKT sh_cp_pcp DACG<4> DACG<3> DACG<2> DACG<1> DACG<0> DACGB<4> DACGB<3> 
+ DACGB<2> DACGB<1> DACGB<0> GNDR INIT<2> INIT<1> INITB<2> INITB<1> PUMP PUMPB 
+ STDBY STDBYB VDDR VREFP iin vbnc vbp vbpc
*.PININFO DACG<4>:I DACG<3>:I DACG<2>:I DACG<1>:I DACG<0>:I DACGB<4>:I 
*.PININFO DACGB<3>:I DACGB<2>:I DACGB<1>:I DACGB<0>:I INIT<2>:I INIT<1>:I 
*.PININFO INITB<2>:I INITB<1>:I PUMP:I PUMPB:I STDBY:I STDBYB:I GNDR:B VDDR:B 
*.PININFO VREFP:B iin:B vbnc:B vbp:B vbpc:B
MM4 GNDR INITB<2> vamp VDDR PL W=36u L=380n m=1
MM0 irin STDBY iin VDDR PL W=3u L=380n m=1
XI0 DACG<4> DACG<3> DACG<2> DACG<1> DACG<0> DACGB<4> DACGB<3> DACGB<2> 
+ DACGB<1> DACGB<0> GNDR VDDR rdac_out irin / sh_cp_rdac
XLS_PCP<1> INIT<1> INITB<1> VREFP INIT_PCP<1> INITB_PCP<1> GNDR / sh_cp_plvshft
XLS_PCP<0> PUMP PUMPB VREFP PUMP_PCP PUMPB_PCP GNDR / sh_cp_plvshft
MCS GNDR VREFP GNDR GNDR NLH W=9u L=4u m=1350
XI2 GNDR STDBY STDBYB VDDR vfb rdac_out vamp vbnc vbp vbpc / sh_cp_pamp
CCF vfb vbuf 250.408f $[CI2] $SUB=GNDR M=6
CC1 rdac_out GNDR 44.1f $[CI2] $SUB=GNDR M=4
CC0 vamp GNDR 250.408f $[CI2] $SUB=GNDR M=8
MM13 iin STDBYB irin GNDR NL W=3u L=380n m=1
MM1 vamp INIT<2> vfb GNDR NL W=4u L=380n m=1
DD0 VDDR VREFP DS 4.7025e-12 M=1
MM5 vbuf INITB_PCP<1> VDDR VREFP PLH W=6u L=500n m=4
MM3 vbuf PUMPB_PCP VREFP VREFP PLH W=6u L=500n m=4
MM2 vbuf vamp vbuf vbuf PLH W=9u L=4u m=450
.ENDS

************************************************************************
* Library Name: PV2109K
* Cell Name:    sh_cp_nlvshft
* View Name:    schematic
************************************************************************

.SUBCKT sh_cp_nlvshft D DB NCP Q QB VDD
*.PININFO D:I DB:I Q:O QB:O NCP:B VDD:B
MM7 Q DB VDD VDD PLH W=1u L=500n m=1
MM8 QB D VDD VDD PLH W=1u L=500n m=1
MM1 net28 QB NCP NCP NLH W=400n L=500n m=1
MM3 Q DB net28 NCP NLH W=400n L=500n m=1
MM0 net29 Q NCP NCP NLH W=400n L=500n m=1
MM2 QB D net29 NCP NLH W=400n L=500n m=1
.ENDS

************************************************************************
* Library Name: PV2109K
* Cell Name:    sh_cp_pFCsc
* View Name:    schematic
************************************************************************

.SUBCKT sh_cp_pFCsc GNDR VDDR inn inp out vbn vbnc vbp vbpc
*.PININFO GNDR:B VDDR:B inn:B inp:B out:B vbn:B vbnc:B vbp:B vbpc:B
CC2 vbp VDDR 250.408f $[CI2] $SUB=GNDR M=2
CC1 vbnc GNDR 250.408f $[CI2] $SUB=GNDR M=2
CC3 vbpc VDDR 250.408f $[CI2] $SUB=GNDR M=2
CC0 vbn GNDR 250.408f $[CI2] $SUB=GNDR M=2
MM43 net030 net09 VDDR VDDR PL W=24u L=1.5u m=1
MMPout net029 net09 VDDR VDDR PL W=24u L=1.5u m=1
MMPoutc out vbpc net029 VDDR PL W=24u L=1.5u m=1
MM40 net09 vbpc net030 VDDR PL W=24u L=1.5u m=1
MMinp net021 inp tail VDDR PL W=12u L=400n m=1
MM48 vbn vbn net020 VDDR PL W=3u L=1.5u m=1
MM46 vbn vbn net021 VDDR PL W=3u L=1.5u m=1
MM37 net023 vbp VDDR VDDR PL W=48u L=1.5u m=1
MM36 tail vbpc net023 VDDR PL W=48u L=1.5u m=1
MMinn net020 inn tail VDDR PL W=12u L=400n m=1
MMNoutc out vbnc net020 GNDR NL W=24u L=1.5u m=1
MMNout net020 vbn GNDR GNDR NL W=32u L=1.5u m=1
MM34 net09 vbnc net021 GNDR NL W=24u L=1.5u m=1
MM44 net021 vbn GNDR GNDR NL W=32u L=1.5u m=1
.ENDS

************************************************************************
* Library Name: PV2109K
* Cell Name:    sh_cp_nbufamp
* View Name:    schematic
************************************************************************

.SUBCKT sh_cp_nbufamp GNDR VDDR inn inp out vbn vbnc vbp vbp_sf vbpc
*.PININFO GNDR:B VDDR:B inn:B inp:B out:B vbn:B vbnc:B vbp:B vbp_sf:B vbpc:B
MM0 out vbp_sf VDDR VDDR PL W=240u L=1.5u m=1
XI6 GNDR VDDR inn inp N_1_M5_g vbn vbnc vbp vbpc / sh_cp_pFCsc
CC1 N_1_M5_g GNDR 250.408f $[CI2] $SUB=GNDR M=2
CC0 vbp_sf VDDR 250.408f $[CI2] $SUB=GNDR M=4
CC3 GNDR VDDR 250.408f $[CI2] $SUB=GNDR M=10
MM5 GNDR N_1_M5_g out out PLT W=48u L=600n m=1
.ENDS

************************************************************************
* Library Name: PV2109K
* Cell Name:    sh_cp_namp
* View Name:    schematic
************************************************************************

.SUBCKT sh_cp_namp GNDR STDBY STDBYB VDDR inn inp out vbn vbnc vbp vbp_sf vbpc
*.PININFO STDBY:I STDBYB:I GNDR:B VDDR:B inn:B inp:B out:B vbn:B vbnc:B vbp:B 
*.PININFO vbp_sf:B vbpc:B
MPSTDBY<1> vbp_sf_amp STDBYB VDDR VDDR PL W=400n L=380n m=1
MPSTDBY<2> vbp_amp STDBYB VDDR VDDR PL W=400n L=380n m=1
MPSTDBY<3> vbpc_amp STDBYB VDDR VDDR PL W=400n L=380n m=1
MPBYP<1> vbp_sf_amp STDBY vbp_sf VDDR PL W=400n L=380n m=1
MPBYP<2> vbp_amp STDBY vbp VDDR PL W=400n L=380n m=1
MPBYP<3> vbpc_amp STDBY vbpc VDDR PL W=400n L=380n m=1
MNBYP<1> vbp_sf_amp STDBYB vbp_sf GNDR NL W=400n L=380n m=1
MNBYP<2> vbp_amp STDBYB vbp GNDR NL W=400n L=380n m=1
MNBYP<3> vbpc_amp STDBYB vbpc GNDR NL W=400n L=380n m=1
XI6 GNDR VDDR inn inp out vbn vbnc vbp_amp vbp_sf_amp vbpc_amp / sh_cp_nbufamp
.ENDS

************************************************************************
* Library Name: PV2109K
* Cell Name:    sh_cp_ncp
* View Name:    schematic
************************************************************************

.SUBCKT sh_cp_ncp DACG<4> DACG<3> DACG<2> DACG<1> DACG<0> DACGB<4> DACGB<3> 
+ DACGB<2> DACGB<1> DACGB<0> GNDR INIT<2> INIT<1> INIT<0> INITB<2> INITB<1> 
+ INITB<0> PUMP PUMPB STDBY STDBYB VDDR VREFN iin vbn vbnc vbp vbp_sf vbpc
*.PININFO DACG<4>:I DACG<3>:I DACG<2>:I DACG<1>:I DACG<0>:I DACGB<4>:I 
*.PININFO DACGB<3>:I DACGB<2>:I DACGB<1>:I DACGB<0>:I INIT<2>:I INIT<1>:I 
*.PININFO INIT<0>:I INITB<2>:I INITB<1>:I INITB<0>:I PUMP:I PUMPB:I STDBY:I 
*.PININFO STDBYB:I GNDR:B VDDR:B VREFN:B iin:B vbn:B vbnc:B vbp:B vbp_sf:B 
*.PININFO vbpc:B
MM3 vbuf PUMP_NCP VREFN VREFN NLH W=24u L=500n m=1
MM2 vbuf INIT_NCP<1> GNDR VREFN NLH W=24u L=500n m=1
MM1 vfb INIT_NCP<2> rdac_out GNDR NLH W=4u L=500n m=1
XLS_NCP<2> INIT<2> INITB<2> VREFN INIT_NCP<2> INITB_NCP<2> VDDR / sh_cp_nlvshft
XLS_NCP<1> INIT<1> INITB<1> VREFN INIT_NCP<1> INITB_NCP<1> VDDR / sh_cp_nlvshft
XLS_NCP<0> PUMP PUMPB VREFN PUMP_NCP PUMPB_NCP VDDR / sh_cp_nlvshft
MP_INIT vamp INITB<2> VDDR VDDR PL W=12u L=380n m=1
MM0 irin STDBY iin VDDR PL W=3u L=380n m=1
CCS VREFN GNDR 250.408f $[CI2] $SUB=VREFN M=80
CC4 rdac_out GNDR 44.1f $[CI2] $SUB=GNDR M=4
CC6q VREFN GNDR 250.408f $[CI2] $SUB=VREFN M=660
CCP vamp vbuf 250.408f $[CI2] $SUB=VREFN M=400
CC1 INITBB<0> GNDR 44.1f $[CI2] $SUB=GNDR M=1
CCF vfb vbuf 250.408f $[CI2] $SUB=VREFN M=6
DD0 VREFN GNDR DR 11.8275e-12 M=1
XI8 GNDR INITB<0> INITBB<0> VDDR / sh_cp_inv_HX3
MM13 iin STDBYB irin GNDR NL W=3u L=380n m=1
XI0 DACG<4> DACG<3> DACG<2> DACG<1> DACG<0> DACGB<4> DACGB<3> DACGB<2> 
+ DACGB<1> DACGB<0> GNDR VDDR rdac_out irin / sh_cp_rdac
XI2 GNDR STDBY STDBYB VDDR vfb INITBB<0> vamp vbn vbnc vbp vbp_sf vbpc / 
+ sh_cp_namp
.ENDS

************************************************************************
* Library Name: PV2109K
* Cell Name:    sh_cp_bias
* View Name:    schematic
************************************************************************

.SUBCKT sh_cp_bias GNDR STDBY STDBYB VDDR i5u iout<1> iout<0> vbn vbnc vbp 
+ vbp_sf vbpc
*.PININFO STDBY:I STDBYB:I GNDR:B VDDR:B i5u:B iout<1>:B iout<0>:B vbn:B 
*.PININFO vbnc:B vbp:B vbp_sf:B vbpc:B
MM35 net0100 vbp VDDR VDDR PL W=12u L=1.5u m=1
MMPvbpc_sf vbp_sf vbpc net095 VDDR PL W=12u L=1.5u m=1
MM34<0> vbp vbpc net0100 VDDR PL W=12u L=1.5u m=1
MM34<1> vbp vbpc net0100 VDDR PL W=12u L=1.5u m=1
MM28<0> iout<1> vbpc net082<0> VDDR PL W=24u L=1.5u m=1
MM28<1> iout<0> vbpc net082<1> VDDR PL W=24u L=1.5u m=1
MM26 net066 vbp VDDR VDDR PL W=12u L=1.5u m=1
MM22 vbnc vbpc net066 VDDR PL W=12u L=1.5u m=1
MM29<0> net082<0> vbp VDDR VDDR PL W=24u L=1.5u m=1
MM29<1> net082<1> vbp VDDR VDDR PL W=24u L=1.5u m=1
MM20 net070 vbp VDDR VDDR PL W=12u L=1.5u m=1
MM14 vbpc vbpc net047 VDDR PL W=6u L=1.5u m=1
MM15 net047 vbpc net045 VDDR PL W=6u L=1.5u m=1
MM16 net045 vbpc net044 VDDR PL W=6u L=1.5u m=1
MMPvbp_sf net095 vbp_sf VDDR VDDR PL W=12u L=1.5u m=1
MM19 vbn vbpc net070 VDDR PL W=12u L=1.5u m=1
MM0 net19 STDBY i5u VDDR PL W=4u L=380n m=1
MM17 net044 vbpc VDDR VDDR PL W=6u L=1.5u m=1
MM32 net084 vbn1 GNDR GNDR NL W=8u L=1.5u m=1
MM5 vbp_sf net19 net097 GNDR NL W=16u L=1.5u m=1
MM33 vbp net19 net084 GNDR NL W=16u L=1.5u m=1
MM27 net076 vbnc GNDR GNDR NL W=4u L=1.5u m=1
MM23 net074 vbnc net091 GNDR NL W=4u L=1.5u m=1
MM30 vbnc vbnc net074 GNDR NL W=4u L=1.5u m=1
MM21 vbn vbnc net069 GNDR NL W=12u L=1.5u m=1
MM18 net069 vbn GNDR GNDR NL W=8u L=1.5u m=1
MM13 vbpc net19 net042 GNDR NL W=16u L=1.5u m=1
MM12 net042 vbn1 GNDR GNDR NL W=8u L=1.5u m=1
MM4 net097 vbn1 GNDR GNDR NL W=8u L=1.5u m=1
MM31 net091 vbnc net076 GNDR NL W=4u L=1.5u m=1
MM3 vbn1 vbn1 GNDR GNDR NL W=4u L=1.5u m=1
MM2 net19 net19 vbn1 GNDR NL W=8u L=1.5u m=1
MM1 i5u STDBYB net19 GNDR NL W=4u L=380n m=1
CC1 GNDR VDDR 250.408f $[CI2] $SUB=GNDR M=4
CC0 vbn1 GNDR 250.408f $[CI2] $SUB=GNDR M=4
.ENDS

************************************************************************
* Library Name: PV2109K
* Cell Name:    sh_cp_inv_X1_pv2109k2
* View Name:    schematic
************************************************************************

.SUBCKT sh_cp_inv_X1_pv2109k2 GNDD IN OUT VDDD psub
*.PININFO IN:I OUT:O GNDD:B VDDD:B psub:B
MM0 OUT IN GNDD psub N3 W=200n L=100n m=1
MM1 OUT IN VDDD VDDD P3 W=600n L=100n m=1
.ENDS

************************************************************************
* Library Name: PV2109K
* Cell Name:    sh_cp_lvshft
* View Name:    schematic
************************************************************************

.SUBCKT sh_cp_lvshft D DB Q QB VDD VSS
*.PININFO D:I DB:I Q:O QB:O VDD:B VSS:B
MM5 QB D net28 VDD PLH W=500n L=500n m=1
MM6 Q DB net27 VDD PLH W=500n L=500n m=1
MM8 net28 Q VDD VDD PLH W=500n L=500n m=1
MM7 net27 QB VDD VDD PLH W=500n L=500n m=1
MM1 Q DB VSS VSS NL_LS W=1u L=320n m=1
MM0 QB D VSS VSS NL_LS W=1u L=320n m=1
.ENDS

************************************************************************
* Library Name: PV2109K
* Cell Name:    sh_cp_nand2_X1_pv2109k2
* View Name:    schematic
************************************************************************

.SUBCKT sh_cp_nand2_X1_pv2109k2 GNDD IN0 IN1 OUT VDDD psub
*.PININFO IN0:I IN1:I OUT:O GNDD:B VDDD:B psub:B
MM3 OUT IN0 net21 psub N3 W=200n L=100n m=1
MM0 net21 IN1 GNDD psub N3 W=200n L=100n m=1
MM2 OUT IN1 VDDD VDDD P3 W=400n L=100n m=1
MM1 OUT IN0 VDDD VDDD P3 W=400n L=100n m=1
.ENDS

************************************************************************
* Library Name: PV2109K
* Cell Name:    sh_cp_tg_pv2109k2
* View Name:    schematic
************************************************************************

.SUBCKT sh_cp_tg_pv2109k2 DACG<4> DACG<3> DACG<2> DACG<1> DACG<0> DACGB<4> 
+ DACGB<3> DACGB<2> DACGB<1> DACGB<0> GNDD GNDR INIT<2> INIT<1> INIT<0> 
+ INITB<2> INITB<1> INITB<0> INIT_12<2> INIT_12<1> INIT_12<0> PUMP PUMPB 
+ REF_12<4> REF_12<3> REF_12<2> REF_12<1> REF_12<0> STDBY STDBYB STDBY_12 VDDD 
+ VDDR
*.PININFO INIT_12<2>:I INIT_12<1>:I INIT_12<0>:I REF_12<4>:I REF_12<3>:I 
*.PININFO REF_12<2>:I REF_12<1>:I REF_12<0>:I DACG<4>:O DACG<3>:O DACG<2>:O 
*.PININFO DACG<1>:O DACG<0>:O DACGB<4>:O DACGB<3>:O DACGB<2>:O DACGB<1>:O 
*.PININFO DACGB<0>:O INIT<2>:O INIT<1>:O INIT<0>:O INITB<2>:O INITB<1>:O 
*.PININFO INITB<0>:O PUMP:O PUMPB:O STDBY:O STDBYB:O STDBY_12:O GNDD:B GNDR:B 
*.PININFO VDDD:B VDDR:B
XPCP_INV<1> GNDD INIT_12<1> INITB_12<1> VDDD GNDR / sh_cp_inv_X1_pv2109k2
XPCP_INV<0> GNDD INIT_12<0> INITB_12<0> VDDD GNDR / sh_cp_inv_X1_pv2109k2
XPCP_INV<2> GNDD IN2B_12 IN2_12 VDDD GNDR / sh_cp_inv_X1_pv2109k2
XPCP_INV<3> GNDD PUMPB_12 PUMP_12 VDDD GNDR / sh_cp_inv_X1_pv2109k2
XPCP_INV<4> GNDD STDBYB_12 STDBY_12 VDDD GNDR / sh_cp_inv_X1_pv2109k2
XPCP_REF_INV<4> GNDD REF_12<4> REFB_12<4> VDDD GNDR / sh_cp_inv_X1_pv2109k2
XPCP_REF_INV<3> GNDD REF_12<3> REFB_12<3> VDDD GNDR / sh_cp_inv_X1_pv2109k2
XPCP_REF_INV<2> GNDD REF_12<2> REFB_12<2> VDDD GNDR / sh_cp_inv_X1_pv2109k2
XPCP_REF_INV<1> GNDD REF_12<1> REFB_12<1> VDDD GNDR / sh_cp_inv_X1_pv2109k2
XPCP_REF_INV<0> GNDD REF_12<0> REFB_12<0> VDDD GNDR / sh_cp_inv_X1_pv2109k2
XPCP_CTRLSIG<4> STDBY_12 STDBYB_12 STDBY STDBYB VDDR GNDR / sh_cp_lvshft
XPCP_CTRLSIG<3> PUMP_12 PUMPB_12 PUMP PUMPB VDDR GNDR / sh_cp_lvshft
XPCP_CTRLSIG<2> IN2_12 IN2B_12 INIT<2> INITB<2> VDDR GNDR / sh_cp_lvshft
XPCP_CTRLSIG<1> INIT_12<1> INITB_12<1> INIT<1> INITB<1> VDDR GNDR / 
+ sh_cp_lvshft
XPCP_CTRLSIG<0> INIT_12<0> INITB_12<0> INIT<0> INITB<0> VDDR GNDR / 
+ sh_cp_lvshft
XPCP_DACSIG<4> REF_12<4> REFB_12<4> DACG<4> DACGB<4> VDDR GNDR / sh_cp_lvshft
XPCP_DACSIG<3> REF_12<3> REFB_12<3> DACG<3> DACGB<3> VDDR GNDR / sh_cp_lvshft
XPCP_DACSIG<2> REF_12<2> REFB_12<2> DACG<2> DACGB<2> VDDR GNDR / sh_cp_lvshft
XPCP_DACSIG<1> REF_12<1> REFB_12<1> DACG<1> DACGB<1> VDDR GNDR / sh_cp_lvshft
XPCP_DACSIG<0> REF_12<0> REFB_12<0> DACG<0> DACGB<0> VDDR GNDR / sh_cp_lvshft
XPCP_NAND_IN2 GNDD INIT_12<2> INIT_12<0> IN2B_12 VDDD GNDR / 
+ sh_cp_nand2_X1_pv2109k2
XPCP_NAND_PUMP GNDD INIT_12<2> INITB_12<0> PUMPB_12 VDDD GNDR / 
+ sh_cp_nand2_X1_pv2109k2
XPCP_NAND_STDBY GNDD INIT_12<1> INITB_12<0> STDBYB_12 VDDD GNDR / 
+ sh_cp_nand2_X1_pv2109k2
.ENDS

************************************************************************
* Library Name: PV2109K
* Cell Name:    sh_cp_ctrl_pv2109k2
* View Name:    schematic
************************************************************************

.SUBCKT sh_cp_ctrl_pv2109k2 BIAS_STDBY BIAS_STDBYB GNDD GNDR NCP_DACG<4> 
+ NCP_DACG<3> NCP_DACG<2> NCP_DACG<1> NCP_DACG<0> NCP_DACGB<4> NCP_DACGB<3> 
+ NCP_DACGB<2> NCP_DACGB<1> NCP_DACGB<0> NCP_INIT<2> NCP_INIT<1> NCP_INIT<0> 
+ NCP_INITB<2> NCP_INITB<1> NCP_INITB<0> NCP_INIT_12<2> NCP_INIT_12<1> 
+ NCP_INIT_12<0> NCP_PUMP NCP_PUMPB NCP_REF_12<4> NCP_REF_12<3> NCP_REF_12<2> 
+ NCP_REF_12<1> NCP_REF_12<0> NCP_STDBY NCP_STDBYB PCP_DACG<4> PCP_DACG<3> 
+ PCP_DACG<2> PCP_DACG<1> PCP_DACG<0> PCP_DACGB<4> PCP_DACGB<3> PCP_DACGB<2> 
+ PCP_DACGB<1> PCP_DACGB<0> PCP_INIT<2> PCP_INIT<1> PCP_INITB<2> PCP_INITB<1> 
+ PCP_INIT_12<2> PCP_INIT_12<1> PCP_INIT_12<0> PCP_PUMP PCP_PUMPB 
+ PCP_REF_12<4> PCP_REF_12<3> PCP_REF_12<2> PCP_REF_12<1> PCP_REF_12<0> 
+ PCP_STDBY PCP_STDBYB STDBY_12 VDDD VDDR
*.PININFO NCP_INIT_12<2>:I NCP_INIT_12<1>:I NCP_INIT_12<0>:I NCP_REF_12<4>:I 
*.PININFO NCP_REF_12<3>:I NCP_REF_12<2>:I NCP_REF_12<1>:I NCP_REF_12<0>:I 
*.PININFO PCP_INIT_12<2>:I PCP_INIT_12<1>:I PCP_INIT_12<0>:I PCP_REF_12<4>:I 
*.PININFO PCP_REF_12<3>:I PCP_REF_12<2>:I PCP_REF_12<1>:I PCP_REF_12<0>:I 